Version 4
SHEET 1 2356 1520
WIRE -256 -1504 -256 -1632
WIRE 272 -1488 272 -1616
WIRE 688 -1488 688 -1616
WIRE 688 -1232 688 -1424
WIRE 688 -1232 -624 -1232
WIRE 1872 -976 1488 -976
WIRE -256 -912 -256 -1440
WIRE -256 -912 -576 -912
WIRE 1088 -896 624 -896
WIRE 272 -864 272 -1424
WIRE 272 -864 96 -864
WIRE 1568 -832 1504 -832
WIRE 1696 -832 1648 -832
WIRE 1088 -768 1088 -896
WIRE 1088 -768 976 -768
WIRE 1136 -768 1088 -768
WIRE 1504 -736 1504 -832
WIRE 1568 -736 1504 -736
WIRE 1696 -736 1696 -832
WIRE 1696 -736 1632 -736
WIRE 896 -688 896 -768
WIRE 1056 -688 896 -688
WIRE 1136 -672 1136 -768
WIRE 1184 -672 1136 -672
WIRE 1488 -672 1488 -976
WIRE 1488 -672 1472 -672
WIRE 1504 -672 1504 -736
WIRE 1504 -672 1488 -672
WIRE -496 -656 -896 -656
WIRE -384 -656 -496 -656
WIRE 0 -656 -96 -656
WIRE 64 -656 0 -656
WIRE 1696 -656 1696 -736
WIRE 1696 -656 1520 -656
WIRE 896 -608 528 -608
WIRE 1056 -608 1056 -688
WIRE 1056 -608 976 -608
WIRE 1184 -608 1056 -608
WIRE 1520 -608 1520 -656
WIRE 1520 -608 1472 -608
WIRE 1568 -608 1520 -608
WIRE 1680 -608 1648 -608
WIRE -496 -592 -496 -656
WIRE -384 -592 -496 -592
WIRE 0 -592 0 -656
WIRE 0 -592 -96 -592
WIRE -576 -528 -576 -912
WIRE -384 -528 -576 -528
WIRE 96 -528 96 -864
WIRE 96 -528 -96 -528
WIRE 64 -416 64 -656
WIRE 112 -416 64 -416
WIRE -624 -400 -624 -1232
WIRE -384 -400 -624 -400
WIRE 32 -400 -96 -400
WIRE 1040 -352 1008 -352
WIRE 1152 -352 1120 -352
WIRE 1184 -352 1152 -352
WIRE 1520 -352 1472 -352
WIRE 1584 -352 1520 -352
WIRE 1632 -352 1584 -352
WIRE -384 -336 -496 -336
WIRE -32 -336 -96 -336
WIRE 80 -336 -32 -336
WIRE 1152 -288 1152 -352
WIRE 1152 -288 1056 -288
WIRE 1184 -288 1168 -288
WIRE 1488 -288 1472 -288
WIRE 1504 -288 1488 -288
WIRE -496 -272 -496 -336
WIRE -496 -272 -608 -272
WIRE -384 -272 -496 -272
WIRE -64 -272 -96 -272
WIRE 16 -272 -64 -272
WIRE 1504 -272 1504 -288
WIRE 1632 -272 1504 -272
WIRE 1168 -224 1168 -288
WIRE 1232 -224 1168 -224
WIRE 1056 -192 1056 -288
WIRE 1168 -192 1168 -224
WIRE 1168 -192 1120 -192
WIRE 1488 -192 1488 -288
WIRE 1488 -192 1328 -192
WIRE -64 -176 -64 -272
WIRE 528 -176 528 -608
WIRE 528 -176 -64 -176
WIRE 1520 -176 1520 -352
WIRE 1520 -176 1488 -176
WIRE 112 -128 112 -416
WIRE 256 -128 112 -128
WIRE 1488 -128 1488 -176
WIRE 1584 -128 1584 -352
WIRE -608 -112 -608 -272
WIRE 32 -112 32 -400
WIRE 32 -112 -608 -112
WIRE 1056 -112 1056 -192
WIRE 1168 -112 1168 -192
WIRE 1168 -112 1136 -112
WIRE 624 -96 624 -896
WIRE 624 -96 336 -96
WIRE 688 -96 624 -96
WIRE -32 -64 -32 -336
WIRE 80 -64 80 -336
WIRE 256 -48 256 -128
WIRE 1024 -48 256 -48
WIRE 16 16 16 -272
WIRE 80 16 16 16
WIRE 256 128 256 -48
WIRE 256 128 -48 128
WIRE -896 224 -896 -656
WIRE -704 224 -896 224
WIRE -368 224 -704 224
WIRE -112 224 -144 224
WIRE -48 224 -48 128
WIRE 0 224 -48 224
WIRE 272 224 224 224
WIRE 336 224 336 -96
WIRE 368 224 336 224
WIRE 640 224 592 224
WIRE 688 224 688 -96
WIRE 736 224 688 224
WIRE 960 224 944 224
WIRE 1024 224 1024 -48
WIRE 1024 224 960 224
WIRE -64 416 -144 416
WIRE 320 416 224 416
WIRE 672 416 592 416
WIRE 1680 416 1680 -608
WIRE 1680 416 960 416
WIRE -64 544 -64 416
WIRE 1488 544 1488 -48
WIRE 1488 544 -64 544
WIRE 2288 544 2288 -1600
WIRE -112 576 -112 224
WIRE 1232 576 1232 -224
WIRE 1232 576 -112 576
WIRE -704 608 -704 224
WIRE 640 608 640 224
WIRE 640 608 -704 608
WIRE 672 640 672 416
WIRE 1008 640 1008 -352
WIRE 1008 640 672 640
WIRE 320 736 320 416
WIRE 1584 736 1584 -48
WIRE 1584 736 320 736
WIRE 272 800 272 224
WIRE 1872 800 1872 -976
WIRE 1872 800 272 800
WIRE 1872 832 1440 832
WIRE 2288 848 2288 624
WIRE 2288 848 1424 848
WIRE 592 880 -304 880
WIRE 1328 880 1328 -192
WIRE 1440 912 1440 832
WIRE 1440 912 1392 912
WIRE 1472 912 1440 912
WIRE 1776 928 1728 928
WIRE -208 976 -432 976
WIRE 1328 976 1328 960
WIRE 1424 976 1424 848
WIRE 1424 976 1328 976
WIRE 1456 976 1424 976
WIRE 1472 976 1456 976
WIRE 1728 976 1728 928
WIRE 1728 976 1696 976
WIRE 1392 1008 1392 912
WIRE 1392 1008 1360 1008
WIRE 1360 1040 1360 1008
WIRE 1776 1040 1776 1008
WIRE 1776 1040 1696 1040
WIRE 1792 1040 1776 1040
WIRE 1872 1040 1872 832
WIRE -208 1056 -208 976
WIRE -208 1056 -240 1056
WIRE -192 1056 -208 1056
WIRE -240 1120 -240 1056
WIRE -192 1120 -240 1120
WIRE 1456 1120 1456 976
WIRE 1456 1120 1360 1120
WIRE -304 1184 -304 880
WIRE -192 1184 -304 1184
WIRE 592 1232 592 880
WIRE 1728 1232 1728 976
WIRE 1728 1232 592 1232
WIRE -432 1472 -432 976
WIRE 656 1472 -432 1472
WIRE 976 1472 736 1472
FLAG -256 -1632 DAC1
FLAG 272 -1616 DAC2
FLAG 192 -1424 0
FLAG -336 -1440 0
FLAG 688 -1616 cal_mic
FLAG 608 -1424 0
FLAG -32 16 0
FLAG 368 416 0
FLAG 736 416 0
FLAG 0 416 0
FLAG -368 416 0
FLAG -368 288 0
FLAG 0 288 0
FLAG 368 288 0
FLAG 736 288 0
FLAG 960 288 0
FLAG 592 288 0
FLAG 224 288 0
FLAG -144 288 0
FLAG 1184 -544 0
FLAG 1184 -416 0
FLAG 1472 -544 0
FLAG 1472 -416 0
FLAG 976 1472 Out
FLAG 2288 -1600 Speech
FLAG 1472 1040 0
FLAG 1696 1104 0
SYMBOL Misc/DIP8 112 320 R0
SYMATTR InstName U1
SYMBOL Misc/DIP8 480 320 R0
SYMATTR InstName U2
SYMBOL Misc/DIP8 848 320 R0
SYMATTR InstName U3
SYMBOL Misc/DIP8 -256 320 R0
SYMATTR InstName U4
SYMBOL Misc/DIP14 -240 -560 R0
SYMATTR InstName U5
SYMBOL Misc/DIP14 1328 -576 R0
SYMATTR InstName U6
SYMBOL Misc/DIP8 -80 1152 R0
SYMATTR InstName U7
SYMBOL cap -272 -1504 R0
SYMATTR InstName C1
SYMBOL res -240 -1456 R90
WINDOW 0 0 56 VBottom 2
WINDOW 3 32 56 VTop 2
SYMATTR InstName R1
SYMBOL cap 256 -1488 R0
SYMATTR InstName C2
SYMBOL res 288 -1440 R90
WINDOW 0 0 56 VBottom 2
WINDOW 3 32 56 VTop 2
SYMATTR InstName R2
SYMBOL cap 672 -1488 R0
SYMATTR InstName C3
SYMBOL res 704 -1440 R90
WINDOW 0 0 56 VBottom 2
WINDOW 3 32 56 VTop 2
SYMATTR InstName R3
SYMBOL res -48 -80 R0
SYMATTR InstName R4
SYMBOL res 64 -80 R0
SYMATTR InstName R5
SYMBOL res 992 -624 R90
WINDOW 0 0 56 VBottom 2
WINDOW 3 32 56 VTop 2
SYMATTR InstName R6
SYMBOL res 992 -784 R90
WINDOW 0 0 56 VBottom 2
WINDOW 3 32 56 VTop 2
SYMATTR InstName R7
SYMBOL Res 1136 -368 R90
WINDOW 0 0 56 VBottom 2
WINDOW 3 32 56 VTop 2
SYMATTR InstName R8
SYMBOL Cap 1120 -208 R90
WINDOW 0 0 32 VBottom 2
WINDOW 3 32 32 VTop 2
SYMATTR InstName C4
SYMBOL Res 1152 -128 R90
WINDOW 0 0 56 VBottom 2
WINDOW 3 32 56 VTop 2
SYMATTR InstName R9
SYMBOL Res 1664 -624 R90
WINDOW 0 0 56 VBottom 2
WINDOW 3 32 56 VTop 2
SYMATTR InstName R10
SYMBOL Cap 1632 -752 R90
WINDOW 0 0 32 VBottom 2
WINDOW 3 32 32 VTop 2
SYMATTR InstName C5
SYMBOL Res 1664 -848 R90
WINDOW 0 0 56 VBottom 2
WINDOW 3 32 56 VTop 2
SYMATTR InstName R11
SYMBOL Res 1472 -144 R0
SYMATTR InstName R12
SYMBOL Res 1568 -144 R0
SYMATTR InstName R13
SYMBOL Res 1616 -368 R0
SYMATTR InstName R14
SYMBOL res 752 1456 R90
WINDOW 0 0 56 VBottom 2
WINDOW 3 32 56 VTop 2
SYMATTR InstName R15
SYMBOL Misc/DIP8 1584 1008 R0
SYMATTR InstName U8
SYMBOL Res 1312 864 R0
SYMATTR InstName R16
SYMBOL Res 2272 528 R0
SYMATTR InstName R17
SYMBOL Res 1344 1024 R0
SYMATTR InstName R18
SYMBOL Res 1888 1024 R90
WINDOW 0 0 56 VBottom 2
WINDOW 3 32 56 VTop 2
SYMATTR InstName R19
SYMBOL Res 1760 912 R0
SYMATTR InstName R20
